# 
# Created by GaussView 5.0.8
#

#
#

@<TRIPOS>MOLECULE
Molecule Name
38 38
SMALL
NO_CHARGES


@<TRIPOS>ATOM
1 C1     0.0000     0.0000     0.0000 C
2 C2     0.0000     0.0000     1.4107 C
3 C3     1.2472     0.0000     2.0820 C
4 C4     2.4230     0.0184     1.3094 C
5 C5     2.4050     0.0262    -0.0618 C
6 C6     1.1686     0.0131    -0.7139 C
7 H7    -0.9421    -0.0056    -0.5095 H
8 H8     3.3719     0.0328     1.8011 H
9 H9     3.3169     0.0431    -0.6192 H
10 H10     1.1302     0.0158    -1.7843 H
11 N11    -1.1938    -0.0047     2.0613 N
12 H12    -2.0351    -0.0059     1.5450 H
13 H13    -1.2244     0.0262     3.0486 H
14 C14     1.3187    -0.0047     3.5484 C
15 C15     2.6702    -0.0564     4.2308 C
16 H16     3.1751     0.8863     4.0662 H
17 H17     3.2986    -0.8096     3.7783 H
18 C18     2.5585    -0.3138     5.7289 C
19 H19     1.8047     0.3139     6.1695 H
20 C20     3.8748    -0.0263     6.4192 C
21 N21     2.1794    -1.6916     5.9962 N
22 H22     2.5785    -2.3977     5.4283 H
23 O23     4.9326     0.1360     5.8852 O
24 O24     0.3086     0.0527     4.2498 O
25 C25     3.9621    -0.8805     8.7123 C
26 C26     1.3569    -2.0608     7.0135 C
27 O27     4.3180    -1.9818     8.3808 O
28 C28     3.6668    -0.4041    10.0845 C
29 H29     3.9685    -1.1494    10.7989 H
30 H30     4.1774     0.5267    10.2744 H
31 H31     2.6035    -0.2291    10.1633 H
32 C32     1.0471    -3.5244     7.1042 C
33 H33     0.1694    -3.6597     7.7117 H
34 H34     0.8819    -3.9627     6.1307 H
35 H35     1.8770    -4.0347     7.5759 H
36 O36     0.9346    -1.2487     7.8299 O
37 N37     3.7469     0.1083     7.7898 N
38 H38     4.3584     0.7652     8.2309 H
@<TRIPOS>BOND
1 1 2 Ar
2 1 6 2
3 1 7 1
4 2 3 Ar
5 2 11 Ar
6 3 4 Ar
7 3 14 1
8 4 5 2
9 4 8 1
10 5 6 Ar
11 5 9 1
12 6 10 1
13 11 12 1
14 11 13 1
15 14 15 1
16 14 24 2
17 15 16 1
18 15 17 1
19 15 18 1
20 18 19 1
21 18 20 1
22 18 21 1
23 20 23 2
24 20 37 1
25 21 22 1
26 21 26 Ar
27 25 27 2
28 25 28 1
29 25 37 Ar
30 26 32 1
31 26 36 2
32 28 29 1
33 28 30 1
34 28 31 1
35 32 33 1
36 32 34 1
37 32 35 1
38 37 38 1
