# 
# Created by GaussView 5.0.8
#

#
#

@<TRIPOS>MOLECULE
Molecule Name
37 37
SMALL
NO_CHARGES


@<TRIPOS>ATOM
1 C1    -5.2239     0.3232     0.2167 C
2 C2    -3.9377     0.7135    -0.1923 C
3 C3    -2.9007    -0.2451    -0.1457 C
4 C4    -3.2040    -1.5413     0.2941 C
5 C5    -4.4682    -1.9128     0.6804 C
6 C6    -5.4806    -0.9565     0.6394 C
7 H7    -6.0153     1.0519     0.1952 H
8 H8    -2.4266    -2.2812     0.3214 H
9 H9    -4.6696    -2.9164     1.0053 H
10 H10    -6.4795    -1.2190     0.9406 H
11 N11    -3.7346     2.0130    -0.5633 N
12 H12    -4.5454     2.5411    -0.7932 H
13 H13    -2.9196     2.2141    -1.0962 H
14 C14    -1.5228     0.0922    -0.5835 C
15 C15    -0.4015    -0.9001    -0.2958 C
16 H16    -0.5019    -1.7368    -0.9804 H
17 H17    -0.5016    -1.3166     0.6993 H
18 C18     0.9816    -0.2789    -0.4626 C
19 H19     1.0569     0.2478    -1.4011 H
20 C20     2.0546    -1.3574    -0.4352 C
21 N21     1.2657     0.6834     0.5769 N
22 H22     1.1053     0.4093     1.5206 H
23 O23     3.2890    -0.8552    -0.7509 O
24 O24     1.8902    -2.5001    -0.2152 O
25 O25    -1.2656     1.1059    -1.1767 O
26 C26     4.2660    -0.7940     0.1792 C
27 C27     1.8615     1.8887     0.3438 C
28 O28     4.0709    -1.0046     1.3247 O
29 C29     5.5668    -0.3953    -0.4510 C
30 H30     6.3257    -0.3040     0.3113 H
31 H31     5.8582    -1.1462    -1.1766 H
32 H32     5.4395     0.5438    -0.9753 H
33 C33     2.0177     2.7526     1.5757 C
34 H34     2.5187     3.6681     1.2989 H
35 H35     1.0466     2.9867     1.9989 H
36 H36     2.6006     2.2359     2.3318 H
37 O37     2.2328     2.2309    -0.7413 O
@<TRIPOS>BOND
1 1 2 Ar
2 1 6 2
3 1 7 1
4 2 3 Ar
5 2 11 Ar
6 3 4 Ar
7 3 14 1
8 4 5 2
9 4 8 1
10 5 6 Ar
11 5 9 1
12 6 10 1
13 11 12 1
14 11 13 1
15 14 15 1
16 14 25 2
17 15 16 1
18 15 17 1
19 15 18 1
20 18 19 1
21 18 20 1
22 18 21 1
23 20 23 1
24 20 24 2
25 21 22 1
26 21 27 Ar
27 23 26 1
28 26 28 2
29 26 29 1
30 27 33 1
31 27 37 2
32 29 30 1
33 29 31 1
34 29 32 1
35 33 34 1
36 33 35 1
37 33 36 1
